@<TRIPOS>MOLECULE
C5H6
 11 11 0 0 0
SMALL
GASTEIGER

@<TRIPOS>ATOM
      1 C           0.0000   -1.2131    0.0000 C.3     1  LIG1       -0.0160
      2 C          -0.7325    0.9490   -0.0000 C.2     1  LIG1       -0.0657
      3 C           0.7325    0.9490    0.0000 C.2     1  LIG1       -0.0657
      4 C          -1.2005   -0.2931   -0.0000 C.2     1  LIG1       -0.0803
      5 C           1.2005   -0.2931    0.0000 C.2     1  LIG1       -0.0803
      6 H          -1.3469    1.8372    0.0003 H       1  LIG1        0.0614
      7 H           1.3469    1.8372   -0.0003 H       1  LIG1        0.0614
      8 H          -2.2389   -0.5898   -0.0000 H       1  LIG1        0.0575
      9 H           2.2389   -0.5898    0.0000 H       1  LIG1        0.0575
     10 H          -0.0000   -1.8354    0.8949 H       1  LIG1        0.0350
     11 H           0.0000   -1.8354   -0.8949 H       1  LIG1        0.0350
@<TRIPOS>BOND
     1    11     1    1
     2     7     3    1
     3     1     4    1
     4     1     5    1
     5     1    10    1
     6     2     3    1
     7     2     4    2
     8     2     6    1
     9     3     5    2
    10     4     8    1
    11     5     9    1
