@<TRIPOS>MOLECULE
C3H5N3O9
 20 19 0 0 0
SMALL
GASTEIGER

@<TRIPOS>ATOM
      1 C           0.9728   -0.9966    0.0953 C.3     1  LIG1        0.1649
      2 C          -1.5168   -0.7855    0.0824 C.3     1  LIG1        0.1649
      3 O           1.2872    1.9624   -0.9456 O.2     1  LIG1       -0.0900
      4 O           3.2394   -2.2636    0.4309 O.2     1  LIG1       -0.0900
      5 O          -3.9676   -1.6525    0.3934 O.2     1  LIG1       -0.0900
      6 O          -0.1064    1.0956    0.6418 O.2     1  LIG1       -0.3413
      7 O           2.1968   -0.3587   -0.2747 O.2     1  LIG1       -0.3478
      8 O          -2.6120    0.0490   -0.2997 O.2     1  LIG1       -0.3478
      9 C          -0.1999   -0.0581   -0.1962 C.3     1  LIG1        0.2052
     10 O           0.8850    3.1494    0.7514 O.2     1  LIG1       -0.0900
     11 O           4.4524   -0.7096   -0.3202 O.2     1  LIG1       -0.0900
     12 O          -4.8940    0.0828   -0.3688 O.2     1  LIG1       -0.0900
     13 N           0.7275    2.1167    0.1251 N.pl3   1  LIG1        0.2178
     14 N           3.3499   -1.1474   -0.0439 N.pl3   1  LIG1        0.2174
     15 N          -3.8838   -0.5341   -0.0816 N.pl3   1  LIG1        0.2174
     16 H          -0.1684    0.2487   -1.2417 H       1  LIG1        0.0833
     17 H           0.8540   -1.9156   -0.4786 H       1  LIG1        0.0765
     18 H           0.9933   -1.2328    1.1593 H       1  LIG1        0.0765
     19 H          -1.5877   -1.0139    1.1458 H       1  LIG1        0.0765
     20 H          -1.5485   -1.7119   -0.4911 H       1  LIG1        0.0765
@<TRIPOS>BOND
     1    16     9    1
     2     3    13    2
     3    20     2    1
     4    17     1    1
     5    12    15    2
     6    11    14    2
     7     8    15    1
     8     8     2    1
     9     7    14    1
    10     7     1    1
    11     9     2    1
    12     9     1    1
    13     9     6    1
    14    15     5    2
    15    14     4    2
    16     2    19    1
    17     1    18    1
    18    13     6    1
    19    13    10    2
