@<TRIPOS>MOLECULE
H2O
 3 2 0 0 0
SMALL
GASTEIGER

@<TRIPOS>ATOM
      1 H          -0.8110    0.4677    0.0000 H       0  HOH0        0.2052
      2 H           0.8110    0.4677    0.0000 H       0  HOH0        0.2052
      3 O          -0.0000   -0.0589   -0.0000 O.3     1  HOH1       -0.4105
@<TRIPOS>BOND
     1     1     3    1
     2     2     3    1
