@<TRIPOS>MOLECULE
C3H7NO2
 13 12 0 0 0
SMALL
GASTEIGER

@<TRIPOS>ATOM
      1 N          -1.5312    0.9685    0.3862 N.3     1  ALA1       -0.3186
      2 CA         -0.6990   -0.2417    0.4182 C.3     1  ALA1        0.1004
      3 HA         -0.7087   -0.6627    1.4235 H       1  ALA1        0.0571
      4 CB         -1.2545   -1.2689   -0.5703 C.3     1  ALA1       -0.0395
      5 C           0.7151    0.1108    0.0348 C.2     1  ALA1        0.3214
      6 O           0.9398    1.1301   -0.5739 O.2     1  ALA1       -0.2493
      7 OXT         1.7250   -0.7076    0.3694 O.3     1  ALA1       -0.4795
      8 H1         -1.5385    1.3780   -0.5360 H       1  ALA1        0.1189
      9 H2         -2.4691    0.7709    0.7015 H       1  ALA1        0.1189
     10 HB1        -1.2449   -0.8478   -1.5756 H       1  ALA1        0.0250
     11 HB2        -0.6371   -2.1668   -0.5465 H       1  ALA1        0.0250
     12 HB3        -2.2774   -1.5238   -0.2930 H       1  ALA1        0.0250
     13 HXT         2.6146   -0.4392    0.1017 H       1  ALA1        0.2951
@<TRIPOS>BOND
     1    10     4    1
     2     6     5    2
     3     4    11    1
     4     4    12    1
     5     4     2    1
     6     8     1    1
     7     5     7    1
     8     5     2    1
     9    13     7    1
    10     1     2    1
    11     1     9    1
    12     2     3    1
