@<TRIPOS>MOLECULE
ammonia
 4 3 0 0 0
SMALL
GASTEIGER

@<TRIPOS>ATOM
      1 N          -0.0000   -0.0000    0.0550 N.3     1  LIG1       -0.3437
      2 H          -0.0128   -0.9601   -0.2550 H       1  LIG1        0.1146
      3 H           0.8379    0.4690   -0.2550 H       1  LIG1        0.1146
      4 H          -0.8251    0.4911   -0.2550 H       1  LIG1        0.1146
@<TRIPOS>BOND
     1     2     1    1
     2     3     1    1
     3     4     1    1
