@<TRIPOS>MOLECULE
aspirin
 21 21 0 0 0
SMALL
GASTEIGER

@<TRIPOS>ATOM
      1 C          -4.2982   -2.6804    3.2552 C.ar    1  LIG1        0.1010
      2 C          -3.8127   -4.0112    3.3702 C.ar    1  LIG1       -0.0442
      3 C          -2.5322   -4.3669    2.9190 C.ar    1  LIG1       -0.0608
      4 C          -1.7045   -3.3972    2.3404 C.ar    1  LIG1       -0.0582
      5 C          -2.1591   -2.0754    2.2147 C.ar    1  LIG1       -0.0184
      6 C          -3.4476   -1.6950    2.6635 C.ar    1  LIG1        0.1456
      7 O          -3.9276   -0.4176    2.5596 O.3     1  LIG1       -0.4252
      8 C          -5.6021   -2.3863    3.7307 C.2     1  LIG1        0.3404
      9 O          -6.3376   -3.2571    4.2524 O.2     1  LIG1       -0.2450
     10 O          -6.1588   -1.1549    3.6630 O.3     1  LIG1       -0.4770
     11 C          -3.5147    0.7973    2.0971 C.2     1  LIG1        0.3092
     12 O          -4.3540    1.7170    2.2288 O.2     1  LIG1       -0.2507
     13 C          -2.2189    1.1249    1.4772 C.3     1  LIG1        0.0336
     14 H          -4.3865   -4.7493    3.7868 H       1  LIG1        0.0627
     15 H          -2.2034   -5.3309    3.0118 H       1  LIG1        0.0618
     16 H          -0.7709   -3.6535    2.0106 H       1  LIG1        0.0619
     17 H          -1.5262   -1.4062    1.7896 H       1  LIG1        0.0654
     18 H          -7.0645   -1.0012    4.0055 H       1  LIG1        0.2954
     19 H          -2.1689    2.1815    1.2046 H       1  LIG1        0.0342
     20 H          -1.4109    0.9193    2.1799 H       1  LIG1        0.0342
     21 H          -2.0844    0.5359    0.5695 H       1  LIG1        0.0342
@<TRIPOS>BOND
     1    21    13    1
     2    19    13    1
     3    13    11    1
     4    13    20    1
     5    17     5    1
     6    16     4    1
     7    11    12    2
     8    11     7    1
     9     5     4   ar
    10     5     6   ar
    11     4     3   ar
    12     7     6    1
    13     6     1   ar
    14     3    15    1
    15     3     2   ar
    16     1     2   ar
    17     1     8    1
    18     2    14    1
    19    10     8    1
    20    10    18    1
    21     8     9    2
