@<TRIPOS>MOLECULE
benzene
 12 12 0 0 0
SMALL
GASTEIGER

@<TRIPOS>ATOM
      1 C           0.6825   -0.0924    1.2087 C.ar    1  LIG1       -0.0618
      2 C          -0.7074   -0.0352    1.1973 C.ar    1  LIG1       -0.0618
      3 C          -1.3898    0.0572   -0.0114 C.ar    1  LIG1       -0.0618
      4 C          -0.6824    0.0925   -1.2088 C.ar    1  LIG1       -0.0618
      5 C           0.7075    0.0352   -1.1973 C.ar    1  LIG1       -0.0618
      6 C           1.3899   -0.0572    0.0114 C.ar    1  LIG1       -0.0618
      7 H           1.2194   -0.1652    2.1600 H       1  LIG1        0.0618
      8 H          -1.2644   -0.0630    2.1393 H       1  LIG1        0.0618
      9 H          -2.4836    0.1021   -0.0204 H       1  LIG1        0.0618
     10 H          -1.2194    0.1652   -2.1599 H       1  LIG1        0.0618
     11 H           1.2641    0.0629   -2.1395 H       1  LIG1        0.0618
     12 H           2.4836   -0.1022    0.0205 H       1  LIG1        0.0618
@<TRIPOS>BOND
     1    10     4    1
     2    11     5    1
     3     4     5   ar
     4     4     3   ar
     5     5     6   ar
     6     9     3    1
     7     3     2   ar
     8     6    12    1
     9     6     1   ar
    10     2     1   ar
    11     2     8    1
    12     1     7    1
