@<TRIPOS>MOLECULE
CH3Br
 5 4 0 0 0
SMALL
GASTEIGER

@<TRIPOS>ATOM
      1 C           1.6431   -0.0000   -0.0000 C.3     1  LIG1       -0.0084
      2 BR         -0.3229    0.0000    0.0000 Br      1  LIG1       -0.0954
      3 H           2.0064    0.0000    1.0277 H       1  LIG1        0.0346
      4 H           2.0064   -0.8900   -0.5138 H       1  LIG1        0.0346
      5 H           2.0064    0.8900   -0.5138 H       1  LIG1        0.0346
@<TRIPOS>BOND
     1     4     1    1
     2     5     1    1
     3     1     2    1
     4     1     3    1
