@<TRIPOS>MOLECULE
buckminster fullerene
 60 90 0 0 0
SMALL
GASTEIGER

@<TRIPOS>ATOM
      1 C          -2.0742   -1.4906    2.4238 C.3     1  LIG1        0.0000
      2 C          -1.2539   -2.5889    2.0790 C.3     1  LIG1        0.0000
      3 C          -1.3162   -0.5730    3.1902 C.3     1  LIG1        0.0000
      4 C          -3.0268   -0.9803    1.4979 C.3     1  LIG1        0.0000
      5 C           0.0292   -2.3145    2.5822 C.3     1  LIG1        0.0000
      6 C          -1.3633   -3.1691    0.7833 C.3     1  LIG1        0.0000
      7 C          -1.5046    0.8279    3.0775 C.3     1  LIG1        0.0000
      8 C          -0.0036   -1.0901    3.3050 C.3     1  LIG1        0.0000
      9 C          -3.1424   -1.5676    0.2142 C.3     1  LIG1        0.0000
     10 C          -3.2153    0.4170    1.3643 C.3     1  LIG1        0.0000
     11 C           1.2159   -2.6596    1.8876 C.3     1  LIG1        0.0000
     12 C          -2.3058   -2.6599   -0.1435 C.3     1  LIG1        0.0000
     13 C          -0.1923   -3.5062    0.0595 C.3     1  LIG1        0.0000
     14 C          -2.4570    1.3241    2.1535 C.3     1  LIG1        0.0000
     15 C          -0.3803    1.6914    3.0650 C.3     1  LIG1        0.0000
     16 C           1.1322   -0.2381    3.3137 C.3     1  LIG1        0.0000
     17 C          -3.4010   -0.5316   -0.7159 C.3     1  LIG1        0.0000
     18 C          -3.4450    0.6942   -0.0067 C.3     1  LIG1        0.0000
     19 C           2.3603   -1.8633    1.9207 C.3     1  LIG1        0.0000
     20 C           1.0955   -3.2643    0.6036 C.3     1  LIG1        0.0000
     21 C          -1.7283   -2.7024   -1.4369 C.3     1  LIG1        0.0000
     22 C          -0.4190   -3.2272   -1.3126 C.3     1  LIG1        0.0000
     23 C          -1.9240    2.4971    1.5665 C.3     1  LIG1        0.0000
     24 C           0.9306    1.1622    3.1737 C.3     1  LIG1        0.0000
     25 C          -0.6430    2.7221    2.1276 C.3     1  LIG1        0.0000
     26 C           2.3121   -0.6026    2.6445 C.3     1  LIG1        0.0000
     27 C          -2.8233   -0.5796   -2.0132 C.3     1  LIG1        0.0000
     28 C          -2.9130    1.8739   -0.5936 C.3     1  LIG1        0.0000
     29 C           2.9393   -1.9105    0.5910 C.3     1  LIG1        0.0000
     30 C           2.1615   -2.7787   -0.1935 C.3     1  LIG1        0.0000
     31 C          -1.9867   -1.6647   -2.3725 C.3     1  LIG1        0.0000
     32 C           0.6352   -2.7216   -2.1204 C.3     1  LIG1        0.0000
     33 C          -2.1515    2.7749    0.1913 C.3     1  LIG1        0.0000
     34 C           1.9925    1.6639    2.3796 C.3     1  LIG1        0.0000
     35 C           0.4067    3.2208    1.3109 C.3     1  LIG1        0.0000
     36 C           2.8498    0.6053    2.0475 C.3     1  LIG1        0.0000
     37 C          -2.2924    0.5959   -2.5979 C.3     1  LIG1        0.0000
     38 C          -2.3374    1.8255   -1.8871 C.3     1  LIG1        0.0000
     39 C           3.4754   -0.7011   -0.0119 C.3     1  LIG1        0.0000
     40 C           1.9193   -2.4963   -1.5672 C.3     1  LIG1        0.0000
     41 C          -0.9380   -1.1584   -3.1791 C.3     1  LIG1        0.0000
     42 C           0.3747   -1.6871   -3.0535 C.3     1  LIG1        0.0000
     43 C          -1.1046    3.2808   -0.6177 C.3     1  LIG1        0.0000
     44 C           1.7134    2.6858    1.4327 C.3     1  LIG1        0.0000
     45 C           0.1813    3.5090   -0.0578 C.3     1  LIG1        0.0000
     46 C           3.4309    0.5545    0.7154 C.3     1  LIG1        0.0000
     47 C          -1.1268    0.2387   -3.3190 C.3     1  LIG1        0.0000
     48 C          -1.2188    2.6941   -1.9020 C.3     1  LIG1        0.0000
     49 C           3.2260   -0.4201   -1.3660 C.3     1  LIG1        0.0000
     50 C           2.4495   -1.3189   -2.1510 C.3     1  LIG1        0.0000
     51 C           1.4948   -0.8197   -3.0696 C.3     1  LIG1        0.0000
     52 C           2.2897    2.6464    0.1401 C.3     1  LIG1        0.0000
     53 C           1.3488    3.1592   -0.7796 C.3     1  LIG1        0.0000
     54 C           3.1488    1.5672   -0.2158 C.3     1  LIG1        0.0000
     55 C          -0.0042    1.1097   -3.3330 C.3     1  LIG1        0.0000
     56 C          -0.0491    2.3366   -2.6259 C.3     1  LIG1        0.0000
     57 C           3.0253    0.9783   -1.5010 C.3     1  LIG1        0.0000
     58 C           1.3039    0.5814   -3.2083 C.3     1  LIG1        0.0000
     59 C           1.2317    2.5679   -2.0671 C.3     1  LIG1        0.0000
     60 C           2.0676    1.4804   -2.4229 C.3     1  LIG1        0.0000
@<TRIPOS>BOND
     1    55    47    1
     2    55    58    1
     3    55    56    1
     4    47    41    1
     5    47    37    1
     6    58    51    1
     7    58    60    1
     8    41    42    1
     9    41    31    1
    10    51    42    1
    11    51    50    1
    12    42    32    1
    13    56    59    1
    14    56    48    1
    15    37    27    1
    16    37    38    1
    17    60    59    1
    18    60    57    1
    19    31    27    1
    20    31    21    1
    21    50    40    1
    22    50    49    1
    23    32    40    1
    24    32    22    1
    25    59    53    1
    26    27    17    1
    27    48    38    1
    28    48    43    1
    29    38    28    1
    30    40    30    1
    31    57    49    1
    32    57    54    1
    33    21    22    1
    34    21    12    1
    35    49    39    1
    36    22    13    1
    37    53    45    1
    38    53    52    1
    39    17    18    1
    40    17     9    1
    41    43    45    1
    42    43    33    1
    43    28    18    1
    44    28    33    1
    45    54    52    1
    46    54    46    1
    47    30    29    1
    48    30    20    1
    49    12     9    1
    50    12     6    1
    51    45    35    1
    52    39    29    1
    53    39    46    1
    54    18    10    1
    55    13    20    1
    56    13     6    1
    57    52    44    1
    58    33    23    1
    59     9     4    1
    60    29    19    1
    61    20    11    1
    62    46    36    1
    63     6     2    1
    64    35    44    1
    65    35    25    1
    66    10     4    1
    67    10    14    1
    68    44    34    1
    69     4     1    1
    70    23    25    1
    71    23    14    1
    72    11    19    1
    73    11     5    1
    74    19    26    1
    75    36    34    1
    76    36    26    1
    77     2     1    1
    78     2     5    1
    79    25    15    1
    80    14     7    1
    81    34    24    1
    82     1     3    1
    83     5     8    1
    84    26    16    1
    85    15     7    1
    86    15    24    1
    87     7     3    1
    88    24    16    1
    89     3     8    1
    90     8    16    1
