@<TRIPOS>MOLECULE
xyz/cyclohexane.xyz
 18 18 0 0 0
SMALL
GASTEIGER

@<TRIPOS>ATOM
      1 C           0.0339   -1.4576    0.2258 C.3     1  LIG1       -0.0531
      2 C          -1.2454   -0.7581   -0.2258 C.3     1  LIG1       -0.0531
      3 C          -1.2793    0.6995    0.2258 C.3     1  LIG1       -0.0531
      4 C          -0.0339    1.4576   -0.2258 C.3     1  LIG1       -0.0531
      5 C           1.2454    0.7581    0.2258 C.3     1  LIG1       -0.0531
      6 C           1.2793   -0.6995   -0.2258 C.3     1  LIG1       -0.0531
      7 H           0.0358   -1.5429    1.3195 H       1  LIG1        0.0265
      8 H           0.0576   -2.4775   -0.1742 H       1  LIG1        0.0265
      9 H          -1.3182   -0.8025   -1.3195 H       1  LIG1        0.0265
     10 H          -2.1168   -1.2886    0.1742 H       1  LIG1        0.0265
     11 H          -2.1744    1.1889   -0.1742 H       1  LIG1        0.0265
     12 H          -1.3541    0.7404    1.3195 H       1  LIG1        0.0265
     13 H          -0.0358    1.5429   -1.3195 H       1  LIG1        0.0265
     14 H          -0.0576    2.4775    0.1742 H       1  LIG1        0.0265
     15 H           2.1168    1.2886   -0.1742 H       1  LIG1        0.0265
     16 H           1.3182    0.8025    1.3195 H       1  LIG1        0.0265
     17 H           2.1744   -1.1889    0.1742 H       1  LIG1        0.0265
     18 H           1.3541   -0.7404   -1.3195 H       1  LIG1        0.0265
@<TRIPOS>BOND
     1     9     2    1
     2    13     4    1
     3    18     6    1
     4     2    10    1
     5     2     3    1
     6     2     1    1
     7     4    14    1
     8     4     3    1
     9     4     5    1
    10     6    17    1
    11     6     1    1
    12     6     5    1
    13    11     3    1
    14     8     1    1
    15    15     5    1
    16     3    12    1
    17     1     7    1
    18     5    16    1
