@<TRIPOS>MOLECULE
C8H8
 16 16 0 0 0
SMALL
GASTEIGER

@<TRIPOS>ATOM
      1 C          -0.5026    1.4770   -0.4917 C.2     1  LIG1       -0.0618
      2 C          -1.4829    0.4857   -0.4918 C.2     1  LIG1       -0.0618
      3 C          -1.4772   -0.5025    0.4917 C.2     1  LIG1       -0.0618
      4 C          -0.4856   -1.4826    0.4917 C.2     1  LIG1       -0.0618
      5 C           0.5026   -1.4769   -0.4917 C.2     1  LIG1       -0.0618
      6 C           1.4828   -0.4856   -0.4917 C.2     1  LIG1       -0.0618
      7 C           1.4771    0.5026    0.4918 C.2     1  LIG1       -0.0618
      8 C           0.4856    1.4826    0.4918 C.2     1  LIG1       -0.0618
      9 H          -0.5061    2.2390   -1.2570 H       1  LIG1        0.0618
     10 H          -2.2477    0.4835   -1.2543 H       1  LIG1        0.0618
     11 H          -2.2416   -0.5087    1.2546 H       1  LIG1        0.0618
     12 H          -0.4828   -2.2469    1.2547 H       1  LIG1        0.0618
     13 H           0.5089   -2.2417   -1.2543 H       1  LIG1        0.0618
     14 H           2.2477   -0.4833   -1.2542 H       1  LIG1        0.0618
     15 H           2.2415    0.5086    1.2547 H       1  LIG1        0.0618
     16 H           0.4829    2.2471    1.2547 H       1  LIG1        0.0618
@<TRIPOS>BOND
     1     9     1    1
     2    10     2    1
     3    13     5    1
     4    14     6    1
     5     2     1    2
     6     2     3    1
     7     1     8    1
     8     5     6    2
     9     5     4    1
    10     6     7    1
    11     3     4    2
    12     3    11    1
    13     4    12    1
    14     7     8    2
    15     7    15    1
    16     8    16    1
