@<TRIPOS>MOLECULE
C7H8
 15 15 0 0 0
SMALL
GASTEIGER

@<TRIPOS>ATOM
      1 C          -1.2231    0.9609   -0.1808 C.2     1  LIG1       -0.0803
      2 C          -1.5032   -0.3235   -0.3292 C.2     1  LIG1       -0.0654
      3 C          -0.6708   -1.3827    0.2127 C.2     1  LIG1       -0.0621
      4 C           0.6586   -1.3884    0.2127 C.2     1  LIG1       -0.0621
      5 C           1.5001   -0.3366   -0.3295 C.2     1  LIG1       -0.0654
      6 C           1.2315    0.9503   -0.1810 C.2     1  LIG1       -0.0803
      7 C           0.0064    1.4192    0.5518 C.3     1  LIG1       -0.0160
      8 H          -1.8920    1.6979   -0.6002 H       1  LIG1        0.0575
      9 H          -2.3921   -0.5968   -0.8783 H       1  LIG1        0.0615
     10 H          -1.1715   -2.2334    0.6508 H       1  LIG1        0.0617
     11 H           1.1519   -2.2431    0.6513 H       1  LIG1        0.0617
     12 H           2.3862   -0.6178   -0.8791 H       1  LIG1        0.0615
     13 H           1.9092    1.6814   -0.5965 H       1  LIG1        0.0575
     14 H           0.0111    2.5078    0.6078 H       1  LIG1        0.0350
     15 H           0.0047    1.0038    1.5596 H       1  LIG1        0.0350
@<TRIPOS>BOND
     1    12     5    1
     2     9     2    1
     3     8     1    1
     4    13     6    1
     5     5     6    2
     6     5     4    1
     7     2     1    2
     8     2     3    1
     9     6     7    1
    10     1     7    1
    11     3     4    2
    12     3    10    1
    13     4    11    1
    14     7    14    1
    15     7    15    1
