@<TRIPOS>MOLECULE
C7H14
 21 21 0 0 0
SMALL
GASTEIGER

@<TRIPOS>ATOM
      1 C          -1.5024    0.7126    0.1466 C.3     1  LIG1       -0.0531
      2 C          -1.5021   -0.7130   -0.1466 C.3     1  LIG1       -0.0531
      3 C          -0.2793   -1.4365    0.4536 C.3     1  LIG1       -0.0531
      4 C           0.9037   -1.2030   -0.4466 C.3     1  LIG1       -0.0531
      5 C           1.7559    0.0002   -0.0000 C.3     1  LIG1       -0.0531
      6 C           0.9033    1.2033    0.4466 C.3     1  LIG1       -0.0531
      7 C          -0.2797    1.4364   -0.4536 C.3     1  LIG1       -0.0531
      8 H          -2.4106    1.1566   -0.2609 H       1  LIG1        0.0265
      9 H          -1.4986    0.8505    1.2279 H       1  LIG1        0.0265
     10 H          -2.4102   -1.1574    0.2607 H       1  LIG1        0.0265
     11 H          -1.4981   -0.8509   -1.2279 H       1  LIG1        0.0265
     12 H          -0.0686   -1.0377    1.4459 H       1  LIG1        0.0265
     13 H          -0.4828   -2.5052    0.5210 H       1  LIG1        0.0265
     14 H           1.5280   -2.0965   -0.4473 H       1  LIG1        0.0265
     15 H           0.5455   -1.0246   -1.4605 H       1  LIG1        0.0265
     16 H           2.3913   -0.3079    0.8303 H       1  LIG1        0.0265
     17 H           2.3912    0.3085   -0.8304 H       1  LIG1        0.0265
     18 H           0.5452    1.0247    1.4605 H       1  LIG1        0.0265
     19 H           1.5274    2.0969    0.4473 H       1  LIG1        0.0265
     20 H          -0.0690    1.0378   -1.4459 H       1  LIG1        0.0265
     21 H          -0.4836    2.5051   -0.5209 H       1  LIG1        0.0265
@<TRIPOS>BOND
     1    15     4    1
     2    20     7    1
     3    11     2    1
     4    17     5    1
     5    21     7    1
     6     7     1    1
     7     7     6    1
     8    14     4    1
     9     4     5    1
    10     4     3    1
    11     8     1    1
    12     2     1    1
    13     2    10    1
    14     2     3    1
    15     5     6    1
    16     5    16    1
    17     1     9    1
    18     6    19    1
    19     6    18    1
    20     3    13    1
    21     3    12    1
