@<TRIPOS>MOLECULE
C4H10O
 15 14 0 0 0
SMALL
GASTEIGER

@<TRIPOS>ATOM
      1 C          -1.1985   -0.5299    0.0000 C.3     1  LIG1        0.0448
      2 C          -2.4118    0.4021   -0.0000 C.3     1  LIG1       -0.0416
      3 O           0.0000    0.2483    0.0000 O.3     1  LIG1       -0.3803
      4 C           1.1985   -0.5299   -0.0000 C.3     1  LIG1        0.0448
      5 C           2.4118    0.4021    0.0000 C.3     1  LIG1       -0.0416
      6 H          -1.2233   -1.1588    0.8900 H       1  LIG1        0.0557
      7 H          -1.2233   -1.1588   -0.8900 H       1  LIG1        0.0557
      8 H          -3.3260   -0.1916    0.0000 H       1  LIG1        0.0252
      9 H          -2.3870    1.0309    0.8900 H       1  LIG1        0.0252
     10 H          -2.3870    1.0309   -0.8900 H       1  LIG1        0.0252
     11 H           1.2233   -1.1588    0.8900 H       1  LIG1        0.0557
     12 H           1.2233   -1.1588   -0.8900 H       1  LIG1        0.0557
     13 H           2.3870    1.0309   -0.8900 H       1  LIG1        0.0252
     14 H           2.3870    1.0309    0.8900 H       1  LIG1        0.0252
     15 H           3.3260   -0.1916    0.0000 H       1  LIG1        0.0252
@<TRIPOS>BOND
     1     7     1    1
     2    10     2    1
     3    12     4    1
     4    13     5    1
     5     1     2    1
     6     1     3    1
     7     1     6    1
     8     2     8    1
     9     2     9    1
    10     3     4    1
    11     4     5    1
    12     4    11    1
    13     5    15    1
    14     5    14    1
