@<TRIPOS>MOLECULE
C10H16N2O8
 36 35 0 0 0
SMALL
GASTEIGER

@<TRIPOS>ATOM
      1 C          -0.4715   -0.4941   -0.4125 C.3     1  LIG1        0.0128
      2 C          -2.1832    1.0245   -1.2040 C.3     1  LIG1        0.0972
      3 C          -2.7941   -1.1785   -0.4063 C.3     1  LIG1        0.0972
      4 C           0.4725    0.6397   -0.0075 C.3     1  LIG1        0.0128
      5 C           2.1870   -0.0377   -1.5773 C.3     1  LIG1        0.0972
      6 C           2.7945    1.1642    0.4350 C.3     1  LIG1        0.0972
      7 O          -3.9784    1.4095    0.2728 O.2     1  LIG1       -0.2496
      8 O          -2.0054   -1.7487    1.7396 O.2     1  LIG1       -0.2496
      9 O           3.9724   -1.2824   -0.6745 O.2     1  LIG1       -0.2496
     10 O           2.1292    0.1359    2.4479 O.2     1  LIG1       -0.2496
     11 O          -3.9832    2.6818   -1.5341 O.3     1  LIG1       -0.4797
     12 O          -3.6000   -3.0675    0.9640 O.3     1  LIG1       -0.4797
     13 O           4.0059   -1.0873   -2.8755 O.3     1  LIG1       -0.4797
     14 O           3.4574    1.8838    2.7018 O.3     1  LIG1       -0.4797
     15 C          -3.4473    1.7191   -0.7674 C.2     1  LIG1        0.3190
     16 C          -2.7707   -2.0188    0.8444 C.2     1  LIG1        0.3190
     17 C           3.4538   -0.8481   -1.6756 C.2     1  LIG1        0.3190
     18 C           2.7691    1.0234    1.9351 C.2     1  LIG1        0.3190
     19 H          -4.7944    3.0985   -1.2125 H       1  LIG1        0.2951
     20 H          -3.5484   -3.5767    1.7844 H       1  LIG1        0.2951
     21 H           4.8182   -1.6119   -2.8882 H       1  LIG1        0.2951
     22 H           3.4107    1.7533    3.6588 H       1  LIG1        0.2951
     23 N          -1.8636   -0.0516   -0.2565 N.3     1  LIG1       -0.2812
     24 N           1.8646    0.1972   -0.1635 N.3     1  LIG1       -0.2812
     25 H          -0.2903   -0.7635   -1.4531 H       1  LIG1        0.0439
     26 H          -0.2923   -1.3609    0.2237 H       1  LIG1        0.0439
     27 H          -2.3256    0.6024   -2.1988 H       1  LIG1        0.0542
     28 H          -1.3636    1.7428   -1.2280 H       1  LIG1        0.0542
     29 H          -2.4931   -1.7873   -1.2588 H       1  LIG1        0.0542
     30 H          -3.8023   -0.7978   -0.5695 H       1  LIG1        0.0542
     31 H           0.2933    1.5065   -0.6436 H       1  LIG1        0.0439
     32 H           0.2913    0.9091    1.0331 H       1  LIG1        0.0439
     33 H           2.3272    0.9183   -2.0817 H       1  LIG1        0.0542
     34 H           1.3698   -0.5819   -2.0507 H       1  LIG1        0.0542
     35 H           2.4943    2.1752    0.1598 H       1  LIG1        0.0542
     36 H           3.8032    0.9725    0.0691 H       1  LIG1        0.0542
@<TRIPOS>BOND
     1    21    13    1
     2    13    17    1
     3    27     2    1
     4    33     5    1
     5    34     5    1
     6    17     5    1
     7    17     9    2
     8     5    24    1
     9    11    19    1
    10    11    15    1
    11    25     1    1
    12    29     3    1
    13    28     2    1
    14     2    15    1
    15     2    23    1
    16    15     7    2
    17    31     4    1
    18    30     3    1
    19     1    23    1
    20     1     4    1
    21     1    26    1
    22     3    23    1
    23     3    16    1
    24    24     4    1
    25    24     6    1
    26     4    32    1
    27    36     6    1
    28    35     6    1
    29     6    18    1
    30    16    12    1
    31    16     8    2
    32    12    20    1
    33    18    10    2
    34    18    14    1
    35    14    22    1
