@<TRIPOS>MOLECULE
ethine
 4 3 0 0 0
SMALL
GASTEIGER

@<TRIPOS>ATOM
      1 C          -0.5870   -0.0000   -0.0000 C.1     1  LIG1       -0.1225
      2 C           0.5870    0.0000    0.0000 C.1     1  LIG1       -0.1225
      3 H          -1.6370   -0.0000   -0.0000 H       1  LIG1        0.1225
      4 H           1.6370   -0.0000   -0.0000 H       1  LIG1        0.1225
@<TRIPOS>BOND
     1     1     2    3
     2     1     3    1
     3     2     4    1
