@<TRIPOS>MOLECULE
C4H8O2
 14 13 0 0 0
SMALL
GASTEIGER

@<TRIPOS>ATOM
      1 C          -1.3588   -0.4318    0.0000 C.3     1  LIG1        0.0896
      2 C          -2.6730    0.3517   -0.0000 C.3     1  LIG1       -0.0306
      3 O          -0.2420    0.4962   -0.0000 O.3     1  LIG1       -0.4651
      4 C           0.9910   -0.0342   -0.0000 C.2     1  LIG1        0.3039
      5 C           2.1989    0.8669    0.0000 C.3     1  LIG1        0.0332
      6 O           1.1325   -1.2342   -0.0000 O.2     1  LIG1       -0.2512
      7 H          -1.3099   -1.0592    0.8900 H       1  LIG1        0.0694
      8 H          -1.3099   -1.0592   -0.8900 H       1  LIG1        0.0694
      9 H          -2.7219    0.9791    0.8900 H       1  LIG1        0.0262
     10 H          -2.7219    0.9791   -0.8900 H       1  LIG1        0.0262
     11 H          -3.5113   -0.3449   -0.0000 H       1  LIG1        0.0262
     12 H           1.8756    1.9079   -0.0000 H       1  LIG1        0.0342
     13 H           2.7974    0.6723    0.8900 H       1  LIG1        0.0342
     14 H           2.7974    0.6723   -0.8900 H       1  LIG1        0.0342
@<TRIPOS>BOND
     1     8     1    1
     2    10     2    1
     3    14     5    1
     4     1     2    1
     5     1     3    1
     6     1     7    1
     7     2    11    1
     8     2     9    1
     9     3     4    1
    10     4     5    1
    11     4     6    2
    12     5    12    1
    13     5    13    1
