@<TRIPOS>MOLECULE
glucose
 24 23 0 0 0
SMALL
GASTEIGER

@<TRIPOS>ATOM
      1 O          -3.9756   -0.2665   -0.4009 O.2     1  LIG1       -0.2982
      2 C          -3.1216   -0.7393    0.3101 C.2     1  LIG1        0.1512
      3 C          -1.9281    0.0904    0.7080 C.3     1  LIG1        0.1381
      4 H          -1.8950    0.1821    1.7936 H       1  LIG1        0.0697
      5 O          -2.0350    1.3899    0.1232 O.3     1  LIG1       -0.3819
      6 C          -0.6484   -0.5874    0.2141 C.3     1  LIG1        0.1159
      7 H          -0.5208   -1.5406    0.7271 H       1  LIG1        0.0650
      8 O          -0.7416   -0.8129   -1.1939 O.3     1  LIG1       -0.3861
      9 C           0.5523    0.3144    0.5078 C.3     1  LIG1        0.1118
     10 H           0.6765    0.4143    1.5860 H       1  LIG1        0.0647
     11 O           0.3317    1.6037   -0.0678 O.3     1  LIG1       -0.3865
     12 C           1.8146   -0.3044   -0.0959 C.3     1  LIG1        0.1065
     13 H           1.6904   -0.4043   -1.1742 H       1  LIG1        0.0643
     14 O           2.0352   -1.5936    0.4796 O.3     1  LIG1       -0.3869
     15 C           3.0152    0.5974    0.1977 C.3     1  LIG1        0.0727
     16 O           4.1719    0.0809   -0.4637 O.3     1  LIG1       -0.3924
     17 H          -3.2153   -1.7552    0.6644 H       1  LIG1        0.1055
     18 H          -2.0695    1.3847   -0.8432 H       1  LIG1        0.2105
     19 H          -0.8565   -0.0062   -1.7147 H       1  LIG1        0.2100
     20 H           0.2124    1.5908   -1.0273 H       1  LIG1        0.2100
     21 H           2.1545   -1.5808    1.4392 H       1  LIG1        0.2100
     22 H           2.8097    1.6050   -0.1635 H       1  LIG1        0.0584
     23 H           3.1938    0.6261    1.2726 H       1  LIG1        0.0584
     24 H           4.9727    0.6039   -0.3214 H       1  LIG1        0.2095
@<TRIPOS>BOND
     1    19     8    1
     2     8     6    1
     3    13    12    1
     4    20    11    1
     5    18     5    1
     6    16    24    1
     7    16    15    1
     8     1     2    2
     9    22    15    1
    10    12    15    1
    11    12    14    1
    12    12     9    1
    13    11     9    1
    14     5     3    1
    15    15    23    1
    16     6     9    1
    17     6     3    1
    18     6     7    1
    19     2    17    1
    20     2     3    1
    21    14    21    1
    22     9    10    1
    23     3     4    1
