@<TRIPOS>MOLECULE
C3H8O3
 14 13 0 0 0
SMALL
GASTEIGER

@<TRIPOS>ATOM
      1 O           2.4131    0.0873   -0.2998 O.3     1  LIG1       -0.3924
      2 C           1.2492    0.6653    0.2948 C.3     1  LIG1        0.0723
      3 C           0.0000   -0.0339   -0.2451 C.3     1  LIG1        0.1012
      4 O          -0.0000   -1.4000    0.1742 O.3     1  LIG1       -0.3873
      5 C          -1.2492    0.6653    0.2948 C.3     1  LIG1        0.0723
      6 O          -2.4131    0.0873   -0.2998 O.3     1  LIG1       -0.3924
      7 H           3.2441    0.4828   -0.0029 H       1  LIG1        0.2095
      8 H           1.2952    0.5428    1.3769 H       1  LIG1        0.0583
      9 H           1.2056    1.7267    0.0508 H       1  LIG1        0.0583
     10 H           0.0000    0.0119   -1.3341 H       1  LIG1        0.0639
     11 H          -0.0000   -1.5168    1.1342 H       1  LIG1        0.2100
     12 H          -1.2952    0.5428    1.3769 H       1  LIG1        0.0583
     13 H          -1.2056    1.7267    0.0508 H       1  LIG1        0.0583
     14 H          -3.2441    0.4828   -0.0029 H       1  LIG1        0.2095
@<TRIPOS>BOND
     1    10     3    1
     2     1     7    1
     3     1     2    1
     4     6    14    1
     5     6     5    1
     6     3     4    1
     7     3     2    1
     8     3     5    1
     9     9     2    1
    10    13     5    1
    11     4    11    1
    12     2     8    1
    13     5    12    1
