@<TRIPOS>MOLECULE
C2H5NO2
 10 9 0 0 0
SMALL
GASTEIGER

@<TRIPOS>ATOM
      1 N           1.9307    0.0896   -0.0344 N.3     1  GLY1       -0.3209
      2 CA          0.7611   -0.7988   -0.0080 C.3     1  GLY1        0.0918
      3 C          -0.4984    0.0288   -0.0051 C.2     1  GLY1        0.3185
      4 O          -0.4288    1.2349   -0.0231 O.2     1  GLY1       -0.2496
      5 OXT        -1.6975   -0.5740    0.0176 O.3     1  GLY1       -0.4797
      6 H1          1.9095    0.7384    0.7381 H       1  GLY1        0.1187
      7 H2          2.7884   -0.4418   -0.0368 H       1  GLY1        0.1187
      8 HA1         0.7722   -1.4404   -0.8891 H       1  GLY1        0.0537
      9 HA2         0.7930   -1.4150    0.8906 H       1  GLY1        0.0537
     10 HXT        -2.4767   -0.0015    0.0185 H       1  GLY1        0.2951
@<TRIPOS>BOND
     1     8     2    1
     2     7     1    1
     3     1     2    1
     4     1     6    1
     5     4     3    2
     6     2     3    1
     7     2     9    1
     8     3     5    1
     9     5    10    1
