@<TRIPOS>MOLECULE
C6H14
 20 19 0 0 0
SMALL
GASTEIGER

@<TRIPOS>ATOM
      1 C           3.1459   -0.2289   -0.0000 C.3     1  LIG1       -0.0653
      2 C           1.8396    0.5677    0.0000 C.3     1  LIG1       -0.0559
      3 C           0.6531   -0.3983    0.0000 C.3     1  LIG1       -0.0533
      4 C          -0.6531    0.3983    0.0000 C.3     1  LIG1       -0.0533
      5 C          -1.8396   -0.5677    0.0000 C.3     1  LIG1       -0.0559
      6 C          -3.1459    0.2289   -0.0000 C.3     1  LIG1       -0.0653
      7 H           3.9911    0.4593    0.0000 H       1  LIG1        0.0230
      8 H           3.1885   -0.8568    0.8900 H       1  LIG1        0.0230
      9 H           3.1885   -0.8568   -0.8900 H       1  LIG1        0.0230
     10 H           1.7969    1.1956    0.8900 H       1  LIG1        0.0263
     11 H           1.7969    1.1956   -0.8900 H       1  LIG1        0.0263
     12 H           0.6958   -1.0262   -0.8900 H       1  LIG1        0.0265
     13 H           0.6958   -1.0262    0.8900 H       1  LIG1        0.0265
     14 H          -0.6958    1.0262    0.8900 H       1  LIG1        0.0265
     15 H          -0.6958    1.0262   -0.8900 H       1  LIG1        0.0265
     16 H          -1.7969   -1.1956   -0.8900 H       1  LIG1        0.0263
     17 H          -1.7969   -1.1956    0.8900 H       1  LIG1        0.0263
     18 H          -3.9911   -0.4593    0.0000 H       1  LIG1        0.0230
     19 H          -3.1885    0.8568    0.8900 H       1  LIG1        0.0230
     20 H          -3.1885    0.8568   -0.8900 H       1  LIG1        0.0230
@<TRIPOS>BOND
     1    11     2    1
     2    20     6    1
     3    16     5    1
     4    15     4    1
     5    12     3    1
     6     9     1    1
     7     7     1    1
     8     6     5    1
     9     6    18    1
    10     6    19    1
    11     1     2    1
    12     1     8    1
    13     5     4    1
    14     5    17    1
    15     4     3    1
    16     4    14    1
    17     3     2    1
    18     3    13    1
    19     2    10    1
