@<TRIPOS>MOLECULE
C3H6N6O6
 21 21 0 0 0
SMALL
GASTEIGER

@<TRIPOS>ATOM
      1 O          -1.1164   -3.0742   -0.5349 O.2     1  LIG1       -0.1096
      2 O           2.2026    2.4178   -0.5350 O.2     1  LIG1       -0.1096
      3 O          -2.1043    2.5039   -0.5351 O.2     1  LIG1       -0.1096
      4 C           1.2485   -0.7544    0.8952 C.3     1  LIG1        0.1226
      5 C          -1.2777   -0.7040    0.8952 C.3     1  LIG1        0.1226
      6 C           0.0291    1.4585    0.8948 C.3     1  LIG1        0.1226
      7 O           0.9928   -3.1161   -0.5352 O.2     1  LIG1       -0.1096
      8 O           3.2209    0.5702   -0.5344 O.2     1  LIG1       -0.1096
      9 O          -3.1956    0.6984   -0.5344 O.2     1  LIG1       -0.1096
     10 N          -0.0275   -1.3754    0.5048 N.pl3   1  LIG1       -0.1683
     11 N           1.2048    0.6638    0.5045 N.pl3   1  LIG1       -0.1683
     12 N          -1.1773    0.7114    0.5045 N.pl3   1  LIG1       -0.1683
     13 N          -0.0514   -2.5741   -0.2200 N.pl3   1  LIG1        0.1238
     14 N           2.2552    1.2425   -0.2198 N.pl3   1  LIG1        0.1238
     15 N          -2.2038    1.3316   -0.2199 N.pl3   1  LIG1        0.1238
     16 H           1.3824   -0.8351    1.9740 H       1  LIG1        0.0705
     17 H           2.0720   -1.2522    0.3832 H       1  LIG1        0.0705
     18 H          -2.1204   -1.1684    0.3832 H       1  LIG1        0.0705
     19 H          -1.4146   -0.7793    1.9740 H       1  LIG1        0.0705
     20 H           0.0322    1.6151    1.9735 H       1  LIG1        0.0705
     21 H           0.0483    2.4204    0.3826 H       1  LIG1        0.0705
@<TRIPOS>BOND
     1     7    13    2
     2     3    15    2
     3     2    14    2
     4     1    13    2
     5     8    14    2
     6     9    15    2
     7    13    10    1
     8    15    12    1
     9    14    11    1
    10    21     6    1
    11    17     4    1
    12    18     5    1
    13    11     6    1
    14    11     4    1
    15    12     6    1
    16    12     5    1
    17    10     5    1
    18    10     4    1
    19     6    20    1
    20     5    19    1
    21     4    16    1
