@<TRIPOS>MOLECULE
C20H25N3O
 49 52 0 0 0
SMALL
GASTEIGER

@<TRIPOS>ATOM
      1 C          -1.0095    1.5814   -0.1867 C.3     1  LIG1        0.0397
      2 C           1.7503    0.6599    0.1849 C.3     1  LIG1        0.0671
      3 C          -1.6659   -2.1665   -0.7831 C.ar    1  LIG1       -0.0536
      4 C          -4.6163    0.9555    0.7018 C.ar    1  LIG1        0.0060
      5 C          -4.1005   -2.4313   -0.5412 C.ar    1  LIG1       -0.0378
      6 C          -2.8397   -2.9113   -0.8762 C.ar    1  LIG1       -0.0592
      7 C           5.0046   -1.2697   -0.3876 C.3     1  LIG1        0.0118
      8 C           3.6604   -0.7807    1.7082 C.3     1  LIG1        0.0118
      9 C          -0.1723    3.8391   -0.3195 C.3     1  LIG1       -0.0121
     10 C           6.1963   -0.3102   -0.3820 C.3     1  LIG1       -0.0493
     11 C           2.8542   -2.0519    1.9820 C.3     1  LIG1       -0.0493
     12 H          -6.1067   -0.4872    0.3939 H       1  LIG1        0.1653
     13 O           3.2025    0.2988   -1.6400 O.2     1  LIG1       -0.2749
     14 C          -2.1827    1.9288    0.7401 C.3     1  LIG1       -0.0059
     15 C           1.3756    1.9878   -0.4833 C.3     1  LIG1        0.0138
     16 C           2.9889    0.0972   -0.4633 C.2     1  LIG1        0.2236
     17 C          -1.7164   -0.8669   -0.3331 C.ar    1  LIG1       -0.0112
     18 C          -3.2995    0.9412    0.5245 C.ar    1  LIG1       -0.0200
     19 C           0.6046   -0.2999    0.0077 C.2     1  LIG1       -0.0658
     20 N           0.1165    2.4611    0.0994 N.3     1  LIG1       -0.2971
     21 C          -0.6357    0.1231   -0.1595 C.2     1  LIG1       -0.0253
     22 C          -4.1877   -1.1192   -0.0776 C.ar    1  LIG1        0.0473
     23 N           3.8594   -0.6300    0.2647 N.am    1  LIG1       -0.3015
     24 N          -5.1629   -0.2681    0.3468 N.ar    1  LIG1       -0.3604
     25 C          -2.9983   -0.3910    0.0135 C.ar    1  LIG1        0.0103
     26 H          -1.3395    1.8078   -1.2006 H       1  LIG1        0.0515
     27 H          -0.7204   -2.6072   -1.0626 H       1  LIG1        0.0624
     28 H          -1.8522    1.8830    1.7778 H       1  LIG1        0.0332
     29 H          -2.5382    2.9344    0.5155 H       1  LIG1        0.0332
     30 H          -5.1803    1.7998    1.0699 H       1  LIG1        0.0810
     31 H          -4.9795   -3.0516   -0.6356 H       1  LIG1        0.0638
     32 H           0.8016   -1.3617    0.0170 H       1  LIG1        0.0583
     33 H          -2.7653   -3.9279   -1.2331 H       1  LIG1        0.0618
     34 H           1.9329    0.8215    1.2473 H       1  LIG1        0.0450
     35 H           2.1609    2.7222   -0.3048 H       1  LIG1        0.0437
     36 H           1.2489    1.8356   -1.5552 H       1  LIG1        0.0437
     37 H          -1.0474    4.2061    0.2167 H       1  LIG1        0.0391
     38 H           0.6845    4.4744   -0.0946 H       1  LIG1        0.0391
     39 H          -0.3681    3.8595   -1.3916 H       1  LIG1        0.0391
     40 H           4.7440   -1.5194   -1.4162 H       1  LIG1        0.0462
     41 H           5.2682   -2.1796    0.1515 H       1  LIG1        0.0462
     42 H           3.1181    0.0833    2.0924 H       1  LIG1        0.0462
     43 H           4.6290   -0.8511    2.2031 H       1  LIG1        0.0462
     44 H           5.9327    0.5997   -0.9212 H       1  LIG1        0.0245
     45 H           6.4568   -0.0605    0.6465 H       1  LIG1        0.0245
     46 H           7.0483   -0.7862   -0.8673 H       1  LIG1        0.0245
     47 H           1.8889   -1.9850    1.4802 H       1  LIG1        0.0245
     48 H           3.4004   -2.9167    1.6053 H       1  LIG1        0.0245
     49 H           2.6990   -2.1595    3.0555 H       1  LIG1        0.0245
@<TRIPOS>BOND
     1    13    16    2
     2    36    15    1
     3    40     7    1
     4    39     9    1
     5    33     6    1
     6    26     1    1
     7    27     3    1
     8    44    10    1
     9     6     3   ar
    10     6     5   ar
    11    46    10    1
    12     3    17   ar
    13    31     5    1
    14     5    22   ar
    15    15    35    1
    16    15    20    1
    17    15     2    1
    18    16     2    1
    19    16    23   am
    20     7    10    1
    21     7    41    1
    22     7    23    1
    23    10    45    1
    24    17    21    1
    25    17    25   ar
    26     9    38    1
    27     9    20    1
    28     9    37    1
    29     1    21    1
    30     1    20    1
    31     1    14    1
    32    21    19    2
    33    22    25   ar
    34    22    24   ar
    35    19    32    1
    36    19     2    1
    37    25    18   ar
    38     2    34    1
    39    23     8    1
    40    24    12    1
    41    24     4   ar
    42    29    14    1
    43    18     4   ar
    44    18    14    1
    45     4    30    1
    46    14    28    1
    47    47    11    1
    48    48    11    1
    49     8    11    1
    50     8    42    1
    51     8    43    1
    52    11    49    1
