@<TRIPOS>MOLECULE
CH3Cl
 5 4 0 0 0
SMALL
GASTEIGER

@<TRIPOS>ATOM
      1 C           1.2443    0.0000   -0.0000 C.3     1  LIG1        0.0110
      2 CL         -0.5587   -0.0000    0.0000 Cl      1  LIG1       -0.1291
      3 H           1.6076   -0.0000    1.0277 H       1  LIG1        0.0394
      4 H           1.6076   -0.8900   -0.5138 H       1  LIG1        0.0394
      5 H           1.6076    0.8900   -0.5138 H       1  LIG1        0.0394
@<TRIPOS>BOND
     1     4     1    1
     2     5     1    1
     3     1     2    1
     4     1     3    1
