@<TRIPOS>MOLECULE
CH2Cl2
 5 4 0 0 0
SMALL
GASTEIGER

@<TRIPOS>ATOM
      1 C           0.0000   -0.8541   -0.0000 C.3     1  LIG1        0.0970
      2 CL         -1.4721    0.1869    0.0000 Cl      1  LIG1       -0.1083
      3 CL          1.4721    0.1869    0.0000 Cl      1  LIG1       -0.1083
      4 H          -0.0000   -1.4834    0.8900 H       1  LIG1        0.0597
      5 H           0.0000   -1.4834   -0.8900 H       1  LIG1        0.0597
@<TRIPOS>BOND
     1     5     1    1
     2     1     2    1
     3     1     3    1
     4     1     4    1
