@<TRIPOS>MOLECULE
C17H19NO3
 40 44 0 0 0
SMALL
GASTEIGER

@<TRIPOS>ATOM
      1 C          -0.5090   -2.1955    1.3768 C.ar    1  LIG1       -0.0546
      2 C          -1.7863   -2.3522    0.8629 C.ar    1  LIG1       -0.0162
      3 C          -2.3348   -1.5104   -0.1033 C.ar    1  LIG1        0.1588
      4 O          -3.6000   -1.6912   -0.5682 O.3     1  LIG1       -0.5033
      5 C          -1.5255   -0.4717   -0.5724 C.ar    1  LIG1        0.1663
      6 C          -0.2348   -0.3822   -0.0656 C.ar    1  LIG1        0.0116
      7 C           0.4256    0.7838   -0.7583 C.3     1  LIG1        0.0480
      8 C          -0.8019    1.6259   -1.0913 C.3     1  LIG1        0.1399
      9 H          -0.6355    2.3406   -1.8973 H       1  LIG1        0.0772
     10 O          -1.7551    0.5514   -1.4280 O.3     1  LIG1       -0.4811
     11 C          -1.3835    2.2606    0.1773 C.3     1  LIG1        0.1110
     12 H          -1.8903    3.1846   -0.1012 H       1  LIG1        0.0675
     13 O          -2.3520    1.3650    0.7269 O.3     1  LIG1       -0.3841
     14 C          -0.3859    2.5726    1.2325 C.2     1  LIG1       -0.0559
     15 C           0.8465    2.1760    1.2701 C.2     1  LIG1       -0.0799
     16 C           1.4413    1.3695    0.1939 C.3     1  LIG1        0.0064
     17 H           2.0496    2.0403   -0.4127 H       1  LIG1        0.0368
     18 C           2.3553    0.2510    0.6761 C.3     1  LIG1        0.0213
     19 H           3.1189    0.6918    1.3169 H       1  LIG1        0.0472
     20 C           1.6634   -0.8530    1.4584 C.3     1  LIG1       -0.0110
     21 C           0.3026   -1.1713    0.9218 C.ar    1  LIG1       -0.0383
     22 N           3.0284   -0.3282   -0.4992 N.3     1  LIG1       -0.3015
     23 C           4.0152   -1.3389   -0.0958 C.3     1  LIG1       -0.0124
     24 C           2.0892   -0.8743   -1.4823 C.3     1  LIG1       -0.0001
     25 C           1.1510    0.2639   -2.0017 C.3     1  LIG1       -0.0263
     26 H          -0.1478   -2.8717    2.1375 H       1  LIG1        0.0622
     27 H          -2.3886   -3.1700    1.2301 H       1  LIG1        0.0655
     28 H          -4.2753   -1.2146   -0.0662 H       1  LIG1        0.2923
     29 H          -2.7724    1.6882    1.5355 H       1  LIG1        0.2104
     30 H          -0.7218    3.1926    2.0505 H       1  LIG1        0.0596
     31 H           1.4522    2.4331    2.1265 H       1  LIG1        0.0573
     32 H           2.2613   -1.7614    1.3846 H       1  LIG1        0.0329
     33 H           1.6088   -0.5576    2.5062 H       1  LIG1        0.0329
     34 H           3.5000   -2.1997    0.3305 H       1  LIG1        0.0391
     35 H           4.5894   -1.6540   -0.9671 H       1  LIG1        0.0391
     36 H           4.6882   -0.9130    0.6483 H       1  LIG1        0.0391
     37 H           2.6474   -1.2621   -2.3344 H       1  LIG1        0.0427
     38 H           1.5240   -1.6866   -1.0253 H       1  LIG1        0.0427
     39 H           0.4073   -0.1501   -2.6826 H       1  LIG1        0.0287
     40 H           1.7398    1.0258   -2.5125 H       1  LIG1        0.0287
@<TRIPOS>BOND
     1    39    25    1
     2    40    25    1
     3    37    24    1
     4    25    24    1
     5    25     7    1
     6     9     8    1
     7    24    38    1
     8    24    22    1
     9    10     8    1
    10    10     5    1
    11     8     7    1
    12     8    11    1
    13    35    23    1
    14     7     6    1
    15     7    16    1
    16     5     3   ar
    17     5     6   ar
    18     4     3    1
    19     4    28    1
    20    22    23    1
    21    22    18    1
    22    17    16    1
    23     3     2   ar
    24    12    11    1
    25    23    34    1
    26    23    36    1
    27     6    21   ar
    28    11    13    1
    29    11    14    1
    30    16    18    1
    31    16    15    1
    32    18    19    1
    33    18    20    1
    34    13    29    1
    35     2    27    1
    36     2     1   ar
    37    21     1   ar
    38    21    20    1
    39    14    15    2
    40    14    30    1
    41    15    31    1
    42     1    26    1
    43    32    20    1
    44    20    33    1
