@<TRIPOS>MOLECULE
C8H10
 18 17 0 0 0
SMALL
GASTEIGER

@<TRIPOS>ATOM
      1 C           4.2091    0.2205   -0.0001 C.2     1  LIG1       -0.0987
      2 C           3.0472   -0.4359   -0.0001 C.2     1  LIG1       -0.0689
      3 C           1.7874    0.3072   -0.0001 C.2     1  LIG1       -0.0623
      4 C           0.6084   -0.3589   -0.0001 C.2     1  LIG1       -0.0618
      5 C          -0.6084    0.3589   -0.0000 C.2     1  LIG1       -0.0618
      6 C          -1.7874   -0.3072   -0.0000 C.2     1  LIG1       -0.0623
      7 C          -3.0472    0.4359    0.0001 C.2     1  LIG1       -0.0689
      8 C          -4.2091   -0.2205    0.0001 C.2     1  LIG1       -0.0987
      9 H           4.2192    1.3005   -0.0001 H       1  LIG1        0.0535
     10 H           5.1394   -0.3282    0.0043 H       1  LIG1        0.0535
     11 H           3.0371   -1.5159   -0.0002 H       1  LIG1        0.0612
     12 H           1.7975    1.3871   -0.0000 H       1  LIG1        0.0617
     13 H           0.5983   -1.4389   -0.0001 H       1  LIG1        0.0618
     14 H          -0.5983    1.4389    0.0001 H       1  LIG1        0.0618
     15 H          -1.7975   -1.3871   -0.0001 H       1  LIG1        0.0617
     16 H          -3.0371    1.5159    0.0001 H       1  LIG1        0.0612
     17 H          -5.1394    0.3282    0.0001 H       1  LIG1        0.0535
     18 H          -4.2192   -1.3005    0.0000 H       1  LIG1        0.0535
@<TRIPOS>BOND
     1    11     2    1
     2     2     3    1
     3     2     1    2
     4     3     4    2
     5     3    12    1
     6     4    13    1
     7     4     5    1
     8     1     9    1
     9     1    10    1
    10    15     6    1
    11    18     8    1
    12     6     5    2
    13     6     7    1
    14     5    14    1
    15     8     7    2
    16     8    17    1
    17     7    16    1
