@<TRIPOS>MOLECULE
C9H11NO2
 23 23 0 0 0
SMALL
GASTEIGER

@<TRIPOS>ATOM
      1 N          -1.0739    1.4487   -0.8205 N.3     1  PHE1       -0.3181
      2 CA         -1.2891    0.0545   -0.4106 C.3     1  PHE1        0.1072
      3 HA         -1.0189   -0.6110   -1.2304 H       1  PHE1        0.0577
      4 CB         -0.4193   -0.2587    0.8085 C.3     1  PHE1       -0.0020
      5 CG          1.0351   -0.1766    0.4224 C.ar    1  PHE1       -0.0454
      6 CD2         1.7136    1.0224    0.5355 C.ar    1  PHE1       -0.0585
      7 CE2         3.0477    1.0978    0.1813 C.ar    1  PHE1       -0.0615
      8 CZ          3.7033   -0.0261   -0.2856 C.ar    1  PHE1       -0.0617
      9 CE1         3.0250   -1.2253   -0.3979 C.ar    1  PHE1       -0.0615
     10 CD1         1.6921   -1.3017   -0.0395 C.ar    1  PHE1       -0.0585
     11 C          -2.7402   -0.1470   -0.0575 C.2     1  PHE1        0.3220
     12 OXT        -3.4337    0.8045    0.2140 O.2     1  PHE1       -0.2492
     13 O          -3.2624   -1.3835   -0.0446 O.3     1  PHE1       -0.4795
     14 H1         -1.5881    1.6616   -1.6621 H       1  PHE1        0.1190
     15 H2         -1.3175    2.0859   -0.0770 H       1  PHE1        0.1190
     16 HB1        -0.6269    0.4635    1.5982 H       1  PHE1        0.0334
     17 HB2        -0.6440   -1.2633    1.1667 H       1  PHE1        0.0334
     18 HD2         1.2013    1.9005    0.9003 H       1  PHE1        0.0620
     19 HE2         3.5776    2.0347    0.2690 H       1  PHE1        0.0618
     20 HZ          4.7454    0.0329   -0.5630 H       1  PHE1        0.0618
     21 HE1         3.5372   -2.1033   -0.7629 H       1  PHE1        0.0618
     22 HD1         1.1622   -2.2386   -0.1272 H       1  PHE1        0.0620
     23 H          -4.1976   -1.4627    0.1880 H       1  PHE1        0.2951
@<TRIPOS>BOND
     1    14     1    1
     2     3     2    1
     3     1     2    1
     4     1    15    1
     5    21     9    1
     6    20     8    1
     7     2    11    1
     8     2     4    1
     9     9     8   ar
    10     9    10   ar
    11     8     7   ar
    12    22    10    1
    13    11    13    1
    14    11    12    2
    15    13    23    1
    16    10     5   ar
    17     7    19    1
    18     7     6   ar
    19     5     6   ar
    20     5     4    1
    21     6    18    1
    22     4    17    1
    23     4    16    1
