@<TRIPOS>MOLECULE
C6H6O
 13 13 0 0 0
SMALL
GASTEIGER

@<TRIPOS>ATOM
      1 C          -0.9109    0.0001   -0.0188 C.ar    1  LIG1        0.1169
      2 C          -0.2162   -1.2007   -0.0109 C.ar    1  LIG1       -0.0202
      3 C           1.1651   -1.1981    0.0047 C.ar    1  LIG1       -0.0583
      4 C           1.8553   -0.0001    0.0125 C.ar    1  LIG1       -0.0615
      5 C           1.1652    1.1980    0.0050 C.ar    1  LIG1       -0.0583
      6 C          -0.2161    1.2008   -0.0110 C.ar    1  LIG1       -0.0202
      7 O          -2.2698    0.0001   -0.0398 O.3     1  LIG1       -0.5068
      8 H          -0.7549   -2.1368   -0.0165 H       1  LIG1        0.0654
      9 H           1.7064   -2.1327    0.0113 H       1  LIG1        0.0619
     10 H           2.9352   -0.0001    0.0247 H       1  LIG1        0.0618
     11 H           1.7066    2.1325    0.0114 H       1  LIG1        0.0619
     12 H          -0.7547    2.1369   -0.0168 H       1  LIG1        0.0654
     13 H          -2.6767   -0.0019    0.8374 H       1  LIG1        0.2921
@<TRIPOS>BOND
     1     7     1    1
     2     7    13    1
     3     1     6   ar
     4     1     2   ar
     5    12     6    1
     6     8     2    1
     7     6     5   ar
     8     2     3   ar
     9     3     9    1
    10     3     4   ar
    11     5    11    1
    12     5     4   ar
    13     4    10    1
