@<TRIPOS>MOLECULE
H3P
 4 3 0 0 0
SMALL
GASTEIGER

@<TRIPOS>ATOM
      1 P          -0.0000   -0.0000    0.0557 P.3     1  LIG1       -0.1530
      2 H          -0.0803   -1.2717   -0.5709 H       1  LIG1        0.0510
      3 H           1.1415    0.5663   -0.5709 H       1  LIG1        0.0510
      4 H          -1.0612    0.7054   -0.5709 H       1  LIG1        0.0510
@<TRIPOS>BOND
     1     2     1    1
     2     3     1    1
     3     4     1    1
