@<TRIPOS>MOLECULE
C5H9NO2
 17 17 0 0 0
SMALL
GASTEIGER

@<TRIPOS>ATOM
      1 N           0.8143    1.1044   -0.2602 N.3     1  PRO1       -0.3041
      2 CA         -0.0018   -0.1122   -0.5072 C.3     1  PRO1        0.1057
      3 HA         -0.0106   -0.3547   -1.5699 H       1  PRO1        0.0576
      4 C          -1.4079    0.0868   -0.0030 C.2     1  PRO1        0.3219
      5 OXT        -1.6451    0.9618    0.7958 O.2     1  PRO1       -0.2492
      6 O          -2.3968   -0.7080   -0.4412 O.3     1  PRO1       -0.4795
      7 CB          0.7075   -1.2255    0.2933 C.3     1  PRO1       -0.0260
      8 CG          2.1669   -0.7472    0.4383 C.3     1  PRO1       -0.0385
      9 CD          2.2166    0.6148   -0.2867 C.3     1  PRO1       -0.0033
     10 H           0.6591    1.7959   -0.9785 H       1  PRO1        0.1227
     11 H          -3.2821   -0.5421   -0.0893 H       1  PRO1        0.2951
     12 HB1         0.2468   -1.3384    1.2746 H       1  PRO1        0.0286
     13 HB2         0.6704   -2.1675   -0.2539 H       1  PRO1        0.0286
     14 HG1         2.4225   -0.6254    1.4909 H       1  PRO1        0.0278
     15 HG2         2.8462   -1.4545   -0.0376 H       1  PRO1        0.0278
     16 HD1         2.5550    0.4861   -1.3148 H       1  PRO1        0.0424
     17 HD2         2.8705    1.3054    0.2460 H       1  PRO1        0.0424
@<TRIPOS>BOND
     1     3     2    1
     2    16     9    1
     3    10     1    1
     4     2     1    1
     5     2     4    1
     6     2     7    1
     7     6    11    1
     8     6     4    1
     9     9     1    1
    10     9    17    1
    11     9     8    1
    12    13     7    1
    13    15     8    1
    14     4     5    2
    15     7     8    1
    16     7    12    1
    17     8    14    1
