@<TRIPOS>MOLECULE
pyridine
 11 11 0 0 0
SMALL
GASTEIGER

@<TRIPOS>ATOM
      1 N           0.0002   -1.4621    0.0002 N.ar    1  LIG1       -0.2633
      2 C          -1.1568   -0.6999    0.0001 C.ar    1  LIG1        0.0276
      3 C          -1.2044    0.7047   -0.0002 C.ar    1  LIG1       -0.0436
      4 C          -0.0002    1.4238   -0.0002 C.ar    1  LIG1       -0.0589
      5 C           1.2043    0.7050   -0.0000 C.ar    1  LIG1       -0.0436
      6 C           1.1569   -0.6996    0.0001 C.ar    1  LIG1        0.0276
      7 H          -2.0976   -1.2801    0.0001 H       1  LIG1        0.0829
      8 H          -2.1736    1.2259   -0.0003 H       1  LIG1        0.0633
      9 H          -0.0003    2.5247   -0.0004 H       1  LIG1        0.0618
     10 H           2.1733    1.2264   -0.0001 H       1  LIG1        0.0633
     11 H           2.0979   -1.2796    0.0002 H       1  LIG1        0.0829
@<TRIPOS>BOND
     1     9     4    1
     2     8     3    1
     3     4     3   ar
     4     4     5   ar
     5     3     2   ar
     6    10     5    1
     7     5     6   ar
     8     2     7    1
     9     2     1   ar
    10     6     1   ar
    11     6    11    1
