@<TRIPOS>MOLECULE
pyridine
 11 11 0 0 0
SMALL
GASTEIGER

@<TRIPOS>ATOM
      1 N           0.0002   -1.3400   -0.0001 N.ar    1  LIG1       -0.2633
      2 C          -1.1518   -0.6980    0.0002 C.ar    1  LIG1        0.0276
      3 C          -1.1912    0.6834   -0.0000 C.ar    1  LIG1       -0.0436
      4 C          -0.0002    1.3933   -0.0000 C.ar    1  LIG1       -0.0589
      5 C           1.1910    0.6837    0.0002 C.ar    1  LIG1       -0.0436
      6 C           1.1519   -0.6978   -0.0001 C.ar    1  LIG1        0.0276
      7 H          -2.0750   -1.2583    0.0002 H       1  LIG1        0.0829
      8 H          -2.1377    1.2035   -0.0005 H       1  LIG1        0.0633
      9 H          -0.0003    2.4733   -0.0005 H       1  LIG1        0.0618
     10 H           2.1374    1.2040   -0.0002 H       1  LIG1        0.0633
     11 H           2.0753   -1.2579    0.0004 H       1  LIG1        0.0829
@<TRIPOS>BOND
     1     8     3    1
     2     9     4    1
     3    10     5    1
     4     1     6   ar
     5     1     2   ar
     6     6     5   ar
     7     6    11    1
     8     3     4   ar
     9     3     2   ar
    10     4     5   ar
    11     2     7    1
