@<TRIPOS>MOLECULE
C21H28O5
 54 57 0 0 0
SMALL
GASTEIGER

@<TRIPOS>ATOM
      1 C           0.7692   -1.3326   -0.4616 C.3     1  LIG1       -0.0292
      2 C          -0.5322   -1.0726    0.2750 C.3     1  LIG1       -0.0311
      3 C           1.6768   -0.0929   -0.2398 C.3     1  LIG1        0.0091
      4 C          -1.2081    0.1337   -0.3961 C.3     1  LIG1        0.0007
      5 C           3.0491   -0.5773   -0.6967 C.3     1  LIG1        0.1315
      6 C          -2.5014    0.4617    0.3559 C.3     1  LIG1        0.0131
      7 C          -0.2996    1.3597   -0.3965 C.3     1  LIG1        0.0600
      8 C           4.6868    1.4261   -0.3536 C.3     1  LIG1        0.1052
      9 C           1.7199    0.2590    1.2486 C.3     1  LIG1       -0.0562
     10 C          -2.1225    0.8512    1.7862 C.3     1  LIG1       -0.0520
     11 H           4.0817   -0.6059   -2.4386 H       1  LIG1        0.2108
     12 H           0.4625    2.5746    1.0334 H       1  LIG1        0.2098
     13 H           6.0969    2.7089    0.3298 H       1  LIG1        0.2100
     14 O           4.5600   -0.4203    1.1038 O.2     1  LIG1       -0.2919
     15 O          -6.4401    0.4308   -0.8129 O.2     1  LIG1       -0.2879
     16 C           1.6407   -2.4604    0.1016 C.3     1  LIG1       -0.0463
     17 C          -1.4436   -2.2968    0.1673 C.3     1  LIG1       -0.0458
     18 C           1.0687    1.0531   -1.0257 C.3     1  LIG1       -0.0178
     19 C           3.0568   -2.1025   -0.4263 C.3     1  LIG1       -0.0162
     20 C          -2.7369   -2.0450    0.9489 C.3     1  LIG1       -0.0302
     21 O           3.2262   -0.3190   -2.0910 O.3     1  LIG1       -0.3804
     22 O          -0.1059    1.7967    0.9502 O.3     1  LIG1       -0.3914
     23 O           5.6960    1.8597    0.5605 O.3     1  LIG1       -0.3874
     24 C           4.1338    0.0998    0.1007 C.2     1  LIG1        0.1902
     25 C          -5.2652    0.4313   -0.4960 C.2     1  LIG1        0.1787
     26 C          -3.1810    1.6395   -0.2542 C.2     1  LIG1       -0.0701
     27 C          -4.6321   -0.7806    0.0468 C.2     1  LIG1       -0.0149
     28 C          -4.4451    1.6452   -0.6467 C.2     1  LIG1       -0.0180
     29 C          -3.3621   -0.7646    0.4275 C.2     1  LIG1       -0.0559
     30 H           0.5794   -1.4801   -1.5248 H       1  LIG1        0.0310
     31 H          -0.3239   -0.8433    1.3201 H       1  LIG1        0.0308
     32 H          -1.4479   -0.1183   -1.4291 H       1  LIG1        0.0340
     33 H           1.6225   -2.4543    1.1914 H       1  LIG1        0.0269
     34 H           1.3179   -3.4270   -0.2852 H       1  LIG1        0.0269
     35 H          -1.6824   -2.4805   -0.8802 H       1  LIG1        0.0271
     36 H          -0.9332   -3.1667    0.5807 H       1  LIG1        0.0271
     37 H           1.7122    1.9305   -0.9608 H       1  LIG1        0.0297
     38 H           0.9409    0.7616   -2.0683 H       1  LIG1        0.0297
     39 H           2.2994   -0.4937    1.7832 H       1  LIG1        0.0236
     40 H           2.1862    1.2358    1.3776 H       1  LIG1        0.0236
     41 H           0.7050    0.2856    1.6452 H       1  LIG1        0.0236
     42 H           3.2603   -2.6452   -1.3494 H       1  LIG1        0.0297
     43 H           3.8086   -2.3455    0.3247 H       1  LIG1        0.0297
     44 H          -0.7795    2.1576   -0.9633 H       1  LIG1        0.0596
     45 H          -3.4246   -2.8774    0.8003 H       1  LIG1        0.0310
     46 H          -2.5108   -1.9386    2.0099 H       1  LIG1        0.0310
     47 H          -2.6064    2.5448   -0.3839 H       1  LIG1        0.0582
     48 H          -1.7673    1.8816    1.8002 H       1  LIG1        0.0241
     49 H          -2.9963    0.7593    2.4313 H       1  LIG1        0.0241
     50 H          -1.3341    0.1902    2.1460 H       1  LIG1        0.0241
     51 H           3.8841    2.1629   -0.3850 H       1  LIG1        0.0637
     52 H           5.1196    1.3178   -1.3481 H       1  LIG1        0.0637
     53 H          -5.2067   -1.6907    0.1363 H       1  LIG1        0.0655
     54 H          -4.8742    2.5381   -1.0768 H       1  LIG1        0.0653
@<TRIPOS>BOND
     1    11    21    1
     2    21     5    1
     3    38    18    1
     4    30     1    1
     5    32     4    1
     6    42    19    1
     7    52     8    1
     8    54    28    1
     9    18    37    1
    10    18     7    1
    11    18     3    1
    12    44     7    1
    13    35    17    1
    14    15    25    2
    15     5    19    1
    16     5     3    1
    17     5    24    1
    18    28    25    1
    19    28    26    2
    20    25    27    1
    21     1     3    1
    22     1    16    1
    23     1     2    1
    24    19    16    1
    25    19    43    1
    26     7     4    1
    27     7    22    1
    28     4     2    1
    29     4     6    1
    30    51     8    1
    31    47    26    1
    32     8    24    1
    33     8    23    1
    34    34    16    1
    35    26     6    1
    36     3     9    1
    37    27    53    1
    38    27    29    2
    39    24    14    2
    40    16    33    1
    41    17     2    1
    42    17    36    1
    43    17    20    1
    44     2    31    1
    45    13    23    1
    46     6    29    1
    47     6    10    1
    48    29    20    1
    49    45    20    1
    50    20    46    1
    51    22    12    1
    52     9    40    1
    53     9    41    1
    54     9    39    1
    55    10    48    1
    56    10    50    1
    57    10    49    1
