@<TRIPOS>MOLECULE
C8H8
 16 16 0 0 0
SMALL
GASTEIGER

@<TRIPOS>ATOM
      1 C           2.8580    0.3990   -0.0010 C.2     1  LIG1       -0.0981
      2 C           1.9678   -0.5832   -0.0004 C.2     1  LIG1       -0.0617
      3 C           0.5230   -0.2711   -0.0004 C.ar    1  LIG1       -0.0256
      4 C          -0.4167   -1.3027    0.0003 C.ar    1  LIG1       -0.0546
      5 C          -1.7638   -1.0047    0.0003 C.ar    1  LIG1       -0.0612
      6 C          -2.1837    0.3135   -0.0009 C.ar    1  LIG1       -0.0617
      7 C          -1.2572    1.3409   -0.0021 C.ar    1  LIG1       -0.0612
      8 C           0.0929    1.0563    0.0047 C.ar    1  LIG1       -0.0546
      9 H           3.9137    0.1710   -0.0010 H       1  LIG1        0.0535
     10 H           2.5277    1.4272   -0.0061 H       1  LIG1        0.0535
     11 H           2.2981   -1.6115    0.0002 H       1  LIG1        0.0618
     12 H          -0.0901   -2.3322    0.0005 H       1  LIG1        0.0623
     13 H          -2.4921   -1.8022    0.0008 H       1  LIG1        0.0618
     14 H          -3.2394    0.5415   -0.0013 H       1  LIG1        0.0618
     15 H          -1.5914    2.3679   -0.0034 H       1  LIG1        0.0618
     16 H           0.8152    1.8592    0.0041 H       1  LIG1        0.0623
@<TRIPOS>BOND
     1    10     1    1
     2    15     7    1
     3     7     6   ar
     4     7     8   ar
     5    14     6    1
     6     1     9    1
     7     1     2    2
     8     6     5   ar
     9     2     3    1
    10     2    11    1
    11     3     4   ar
    12     3     8   ar
    13     4     5   ar
    14     4    12    1
    15     5    13    1
    16    16     8    1
