@<TRIPOS>MOLECULE
methane
 5 4 0 0 0
SMALL
GASTEIGER

@<TRIPOS>ATOM
      1 C           0.0000   -0.0000    0.0000 C.3     1  LIG1       -0.0776
      2 H           0.0000   -0.8900   -0.6293 H       1  LIG1        0.0194
      3 H           0.0000    0.8900   -0.6293 H       1  LIG1        0.0194
      4 H          -0.8900   -0.0000    0.6293 H       1  LIG1        0.0194
      5 H           0.8900   -0.0000    0.6293 H       1  LIG1        0.0194
@<TRIPOS>BOND
     1     2     1    1
     2     3     1    1
     3     1     4    1
     4     1     5    1
@<TRIPOS>MOLECULE
methane
 5 4 0 0 0
SMALL
GASTEIGER

@<TRIPOS>ATOM
      1 C           0.0000   -0.0000    0.0000 C.3     1  LIG1       -0.0776
      2 H           0.0000   -0.8900   -0.6293 H       1  LIG1        0.0194
      3 H           0.0000    0.8900   -0.6293 H       1  LIG1        0.0194
      4 H          -0.8900   -0.0000    0.6293 H       1  LIG1        0.0194
      5 H           0.8900   -0.0000    0.6293 H       1  LIG1        0.0194
@<TRIPOS>BOND
     1     2     1    1
     2     3     1    1
     3     1     4    1
     4     1     5    1
@<TRIPOS>MOLECULE
methane
 5 4 0 0 0
SMALL
GASTEIGER

@<TRIPOS>ATOM
      1 C           0.0000   -0.0000    0.0000 C.3     1  LIG1       -0.0776
      2 H           0.0000   -0.8900   -0.6293 H       1  LIG1        0.0194
      3 H           0.0000    0.8900   -0.6293 H       1  LIG1        0.0194
      4 H          -0.8900   -0.0000    0.6293 H       1  LIG1        0.0194
      5 H           0.8900   -0.0000    0.6293 H       1  LIG1        0.0194
@<TRIPOS>BOND
     1     2     1    1
     2     3     1    1
     3     1     4    1
     4     1     5    1
