@<TRIPOS>MOLECULE
C4H8O
 13 13 0 0 0
SMALL
GASTEIGER

@<TRIPOS>ATOM
      1 C           0.4433   -1.1574   -0.0709 C.3     1  LIG1        0.0477
      2 C          -1.0504   -0.7786   -0.0704 C.3     1  LIG1       -0.0274
      3 C          -1.0545    0.7488    0.1820 C.3     1  LIG1       -0.0274
      4 C           0.3816    1.1514   -0.2397 C.3     1  LIG1        0.0477
      5 O           1.1879    0.0403    0.2074 O.3     1  LIG1       -0.3798
      6 H           0.6371   -1.9021    0.7010 H       1  LIG1        0.0560
      7 H           0.7256   -1.5508   -1.0475 H       1  LIG1        0.0560
      8 H          -1.5022   -1.0070   -1.0357 H       1  LIG1        0.0288
      9 H          -1.5757   -1.2990    0.7305 H       1  LIG1        0.0288
     10 H          -1.7969    1.2444   -0.4435 H       1  LIG1        0.0288
     11 H          -1.2265    0.9684    1.2357 H       1  LIG1        0.0288
     12 H           0.4470    1.2621   -1.3221 H       1  LIG1        0.0560
     13 H           0.6848    2.0713    0.2603 H       1  LIG1        0.0560
@<TRIPOS>BOND
     1    12     4    1
     2     7     1    1
     3     8     2    1
     4    10     3    1
     5     4     3    1
     6     4     5    1
     7     4    13    1
     8     1     2    1
     9     1     5    1
    10     1     6    1
    11     2     3    1
    12     2     9    1
    13     3    11    1
