@<TRIPOS>MOLECULE
C5H11NO2
 19 18 0 0 0
SMALL
GASTEIGER

@<TRIPOS>ATOM
      1 N          -0.2014    1.9079    0.2641 N.3     1  VAL1       -0.3182
      2 CA         -0.1193    0.4539    0.4572 C.3     1  VAL1        0.1056
      3 HA         -0.2839    0.2172    1.5083 H       1  VAL1        0.0576
      4 CB         -1.1879   -0.2347   -0.3942 C.3     1  VAL1       -0.0211
      5 CG1        -1.1024   -1.7490   -0.1930 C.3     1  VAL1       -0.0607
      6 CG2        -2.5730    0.2585    0.0289 C.3     1  VAL1       -0.0607
      7 C           1.2450   -0.0319    0.0405 C.2     1  VAL1        0.3220
      8 O           1.9284    0.6424   -0.6930 O.2     1  VAL1       -0.2492
      9 OXT         1.7010   -1.2138    0.4843 O.3     1  VAL1       -0.4795
     10 H1          0.4511    2.3897    0.8642 H       1  VAL1        0.1190
     11 H2         -0.0521    2.1532   -0.7032 H       1  VAL1        0.1190
     12 HB         -1.0233    0.0021   -1.4453 H       1  VAL1        0.0316
     13 HG11       -1.2670   -1.9858    0.8581 H       1  VAL1        0.0233
     14 HG12       -1.8637   -2.2397   -0.7995 H       1  VAL1        0.0233
     15 HG13       -0.1156   -2.1005   -0.4944 H       1  VAL1        0.0233
     16 HG21       -2.6339    1.3374   -0.1144 H       1  VAL1        0.0233
     17 HG22       -3.3343   -0.2321   -0.5776 H       1  VAL1        0.0233
     18 HG23       -2.7377    0.0218    1.0800 H       1  VAL1        0.0233
     19 HXT         2.5818   -1.4831    0.1899 H       1  VAL1        0.2951
@<TRIPOS>BOND
     1    12     4    1
     2    14     5    1
     3    11     1    1
     4     8     7    2
     5    17     6    1
     6    15     5    1
     7     4     5    1
     8     4     6    1
     9     4     2    1
    10     5    13    1
    11    16     6    1
    12     6    18    1
    13     7     2    1
    14     7     9    1
    15    19     9    1
    16     1     2    1
    17     1    10    1
    18     2     3    1
