@<TRIPOS>MOLECULE
water dimer
 6 4 0 0 0
SMALL
GASTEIGER

@<TRIPOS>ATOM
      1 O          -2.0359   -0.5771    1.5015 O.3     1  HOH1       -0.4105
      2 H          -2.6934   -0.0088    1.9292 H       0  HOH0        0.2052
      3 H          -1.3262    0.0708    1.2947 H       0  HOH0        0.2052
      4 O          -0.2263    1.4424    1.0425 O.3     2  HOH2       -0.4105
      5 H           0.5837    1.6262    1.5487 H       0  HOH0        0.2052
      6 H          -0.0356    1.8436    0.1771 H       0  HOH0        0.2052
@<TRIPOS>BOND
     1     6     4    1
     2     4     5    1
     3     3     1    1
     4     1     2    1
